Version 4
SHEET 1 1096 900
WIRE 624 -304 400 -304
WIRE 400 -256 400 -304
WIRE 80 -240 -96 -240
WIRE 624 -192 624 -304
WIRE 80 -160 80 -240
WIRE 400 -160 400 -176
WIRE 400 -160 80 -160
WIRE 400 -144 400 -160
WIRE -96 -112 -96 -240
WIRE 80 -112 80 -160
WIRE 400 -48 400 -64
WIRE 624 -48 624 -112
WIRE 624 -48 400 -48
WIRE 624 -32 624 -48
WIRE 80 32 80 -32
WIRE 464 32 80 32
WIRE 80 48 80 32
WIRE -240 96 -400 96
WIRE -96 96 -96 -32
WIRE -96 96 -176 96
WIRE 16 96 -96 96
WIRE 80 176 80 144
WIRE 240 176 80 176
WIRE -96 208 -96 96
WIRE 80 208 80 176
WIRE 240 224 240 176
WIRE -96 480 -96 288
WIRE 80 480 80 288
WIRE 80 480 -96 480
WIRE 240 480 240 288
WIRE 240 480 80 480
WIRE -1648 528 -1728 528
WIRE -640 560 -784 560
WIRE -512 560 -560 560
WIRE -448 560 -512 560
WIRE 80 576 80 480
WIRE -1648 608 -1648 528
WIRE -512 624 -512 560
WIRE -1648 736 -1648 688
WIRE -1648 736 -1728 736
WIRE -1648 752 -1648 736
WIRE -512 752 -512 688
WIRE -1648 880 -1648 832
FLAG 624 -32 0
FLAG 80 576 0
FLAG 464 32 Vout
IOPIN 464 32 Out
FLAG -1728 528 Vin
IOPIN -1728 528 In
FLAG -512 752 0
FLAG -784 560 Vout
IOPIN -784 560 In
FLAG -448 560 Vfilter
IOPIN -448 560 Out
FLAG -400 96 Vin
IOPIN -400 96 In
FLAG -1648 880 0
FLAG -1728 736 Vreg
IOPIN -1728 736 In
DATAFLAG -512 560 ""
DATAFLAG -496 560 ""
DATAFLAG -688 560 ""
DATAFLAG -512 560 ""
SYMBOL npn 16 48 R0
SYMATTR InstName Q1
SYMATTR Value 2N2222
SYMBOL res 64 -128 R0
SYMATTR InstName R1
SYMATTR Value 22k
SYMBOL res 64 192 R0
SYMATTR InstName R2
SYMATTR Value 13k
SYMBOL res -112 192 R0
SYMATTR InstName R3
SYMATTR Value 10k
SYMBOL res -112 -128 R0
SYMATTR InstName R4
SYMATTR Value 10k
SYMBOL cap 224 224 R0
SYMATTR InstName C2
SYMATTR Value 1µ
SYMBOL cap -176 80 R90
WINDOW 0 0 32 VBottom 2
WINDOW 3 32 32 VTop 2
SYMATTR InstName C1
SYMATTR Value 1µ
SYMBOL voltage 624 -208 R0
WINDOW 123 0 0 Left 0
WINDOW 39 0 0 Left 0
SYMATTR InstName V1
SYMATTR Value 3.3
SYMBOL voltage -1648 592 R0
SYMATTR InstName V2
SYMATTR Value V = (white(2e6*time)/30)
SYMATTR Prefix B
SYMBOL res -544 544 R90
WINDOW 0 0 56 VBottom 2
WINDOW 3 32 56 VTop 2
SYMATTR InstName R8
SYMATTR Value 20k
SYMBOL cap -528 624 R0
SYMATTR InstName C4
SYMATTR Value .82n
SYMBOL voltage -1648 736 R0
WINDOW 123 0 0 Left 0
WINDOW 39 0 0 Left 0
SYMATTR InstName V3
SYMATTR Value SINE(0 25m 2200)
SYMBOL res 384 -272 R0
SYMATTR InstName R5
SYMATTR Value 1k
SYMBOL res 384 -160 R0
SYMATTR InstName R6
SYMATTR Value 25k
TEXT 688 40 Left 2 !.tran 100m
